%nproc=10
%mem=9GB
%chk=DPPBTZ6.chk
#p opt b3lyp/3-21g*

Gaussian optimization calculation on oligomer6

0,1
C          0.0000000    0.0000000    0.0000000
C         -1.0537913   -0.9406836   -0.0573297
C         -0.3521672    1.3303439    0.0746494
N         -3.2028433   -1.6202488   -0.1036468
N         -2.3150089   -2.6085601   -0.1566853
N         -1.0255384   -2.2920656   -0.1343595
C         -2.7402495   -3.9964612   -0.2369354
H          0.4257828    2.0874256    0.1205041
H         -1.9314986    2.8142094    0.1537549
H         -3.8290632   -4.0055342   -0.2416036
H         -2.3570501   -4.5465422    0.6260348
H         -2.3501812   -4.4455850   -1.1535908
C         -1.7160561    1.7509508    0.0938878
C         -2.4167613   -0.5201507   -0.0380824
C         -2.7575041    0.8489866    0.0388166
H         -3.7951365    1.1667696    0.0533070
C          3.8190237   -0.7433355   -0.3198381
C          3.1248668   -1.8782829   -0.0039407
S          2.7512814    0.5623354   -0.7291021
H          0.9872856   -2.4841348    0.1212812
H          3.6024548   -2.8097436    0.2810466
C          1.7085826   -1.7019446   -0.0904641
C          1.3557803   -0.4366426   -0.4703221
C          8.0858602    1.4747977   -0.0373517
C          7.3958164    0.3243855   -0.3014178
N          7.2027220    2.4608744    0.3420451
C          5.8462421    1.9761528    0.3409443
C          7.5505892   -1.0622768   -0.7217428
O          8.5116834   -1.7503809   -1.0224621
O          4.8929258    2.6742127    0.6437216
C          5.8597474   -2.9139478   -1.0875550
C          7.5194742    3.8285180    0.7085948
H          7.0147598    4.5304191    0.0373820
H          7.1887954    4.0360418    1.7311033
H          8.5993449    3.9769594    0.6409075
H          5.3768703   -3.4406672   -0.2568145
H          5.2014329   -2.9427235   -1.9631054
H          6.8003134   -3.4127591   -1.3298045
N          6.1907489   -1.5499679   -0.7234772
C          5.9973635    0.5874166   -0.0798485
C          5.3079288   -0.5628216   -0.3438431
C         12.0420546    1.7962377    0.0612771
C         11.5124716    2.9976022    0.3645910
S         10.8042669    0.5985868   -0.3484625
H          9.4810008    3.8135250    0.4689392
H         12.1143052    3.8800799    0.6476413
C         10.0863660    2.9615584    0.2678123
C          9.5617296    1.7335492   -0.1070434
C         16.3815425    1.1667696    0.0533070
C         15.5042983    0.1048944   -0.2653026
C         15.8078542    2.3819190    0.3594161
N         13.5039977   -0.8780711   -0.6043528
N         14.5468202   -1.6834486   -0.7824278
N         15.7626128   -1.1807107   -0.6021384
C         14.3647816   -3.0745440   -1.1635506
H         16.4447894    3.2256330    0.6102981
H         13.9995718    3.5527425    0.6077897
H         13.2941698   -3.2524925   -1.2515509
H         14.7984486   -3.7228725   -0.3982066
H         14.8629635   -3.2598886   -2.1183201
C         14.3930698    2.5712767    0.3579843
C         14.0904310    0.2943224   -0.2666711
C         13.5213760    1.5482811    0.0500625
C         20.2008811    0.1414846    0.2412953
C         20.1459423    1.4541042    0.5408716
S         18.6134328   -0.5206513   -0.1781764
H         18.5537777    2.9576237    0.6299390
H         21.0271203    2.0555621    0.8287284
C         18.8064664    1.9426292    0.4332142
C         17.8712251    0.9911418    0.0540544
H         21.0750634   -0.4760910    0.2412953

