%nproc=10
%mem=9GB
%chk=TIFBT1.chk
#p opt b3lyp/3-21g*

Gaussian optimization calculation on oligomer1

0,1
C          0.0000000    0.0000000    0.0000000
C         -0.8353534    1.1317297    0.2306065
C         -0.5991436   -1.2220532   -0.1629892
N         -0.4263629    2.3944967    0.4110660
N         -2.9367247    2.1163328    0.5100039
S         -1.7892263    3.2888071    0.6335651
H         -2.4404227   -2.3734105   -0.2433846
H          0.0136790   -2.1014965   -0.3401077
C         -2.0227764   -1.3797997   -0.1068811
C         -2.2769061    0.9720036    0.2874218
C         -2.8600207   -0.3168944    0.1127208
H         -3.9382647   -0.4279744    0.1565720
C         16.7077739    0.2093120    0.2130747
C         16.0055594   -0.9051861    0.5442482
S         15.6831666    1.5752772   -0.1779367
C          9.8803505   -0.9909579    0.6175644
C         10.4567572    0.2456417    0.2515649
C          9.6551133    1.3498107   -0.0651150
C          8.2748281    1.1983019   -0.0102614
C          7.6984435   -0.0382317    0.3558958
C          8.5000773   -1.1423958    0.6726265
C          7.1944232    2.2388109   -0.3065485
C          5.9208026    1.4289341   -0.0596536
C          6.2401649    0.0992842    0.3268415
C         10.9606999   -2.0316680    0.9131919
C         12.2343405   -1.2217586    0.6665894
C         11.9150223    0.1080367    0.2805620
C          4.6067649    1.8401696   -0.1698527
C          3.5752331    0.9175322    0.1080265
C          3.9161972   -0.4067161    0.4930036
C          5.2434896   -0.8308738    0.6068999
C         13.5483419   -1.6331920    0.7763570
C         14.5799323   -0.7105653    0.4986993
C         14.2390464    0.6139828    0.1146862
C         12.9117797    1.0383151    0.0011763
C          7.2926675    3.4408802    0.6594652
C          7.2741415    2.7309988   -1.7691233
C         10.8812492   -2.5234190    2.3759807
C         10.8621419   -3.2340101   -0.0523749
H          8.0509797   -2.0924003    0.9542222
H         10.1042048    2.2999615   -0.3462117
H         13.8003625   -2.6494862    1.0712564
H         12.6714173    2.0559686   -0.2939505
H          4.3546989    2.8562723   -0.4653418
H          5.4839106   -1.8482156    0.9030291
H          8.2393844    3.9753642    0.5184803
H          6.4765274    4.1503226    0.4793896
H          7.2369972    3.1137796    1.7026019
H          7.2056889    1.8937647   -2.4709424
H          6.4574249    3.4287226   -1.9880274
H          8.2203066    3.2538654   -1.9512587
H          9.9157022   -3.7687048    0.0895342
H         10.9169512   -2.9071671   -1.0956276
H         11.6786176   -3.9431149    0.1274430
H          9.9347350   -3.0454710    2.5587453
H         11.6975427   -3.2216904    2.5948398
H         10.9506691   -1.6860523    3.0775763
H          1.6837655    2.0533532   -0.2102307
H         16.4713358   -1.8468634    0.8156378
S          2.4721211   -1.3681904    0.7853037
C          2.1495979    1.1118894    0.0618253
C          1.4474464   -0.0024772    0.3935642
C         21.0396473   -0.4279744    0.1565720
C         20.5117906    0.8501388    0.5024054
C         20.1566116   -1.4240479   -0.1705948
N         21.2208701    1.9331512    0.8469480
N         18.7220282    2.3137654    0.8456471
S         20.1235344    3.1229229    1.1418906
H         18.0888136   -2.0358536   -0.4394827
H         20.5316496   -2.4079527   -0.4382154
C         18.7395120   -1.2081997   -0.1713323
C         19.0768548    1.0687096    0.5016604
C         18.1927544    0.0056672    0.1550938
C         37.5302650   -3.3986152    0.5823148
C         36.6125590   -4.3539652    0.8823301
S         36.8065524   -1.8616158    0.1551800
C         30.5892184   -3.2485564    0.7139394
C         31.4086863   -2.1491721    0.3745204
C         30.8497657   -0.9119143    0.0296888
C         29.4652648   -0.7922951    0.0296627
C         28.6458252   -1.8916182    0.3692402
C         29.2047350   -3.1288691    0.7141222
C         28.6199464    0.4367338   -0.3059625
C         27.2046182   -0.1092637   -0.1117985
C         27.2442924   -1.4737393    0.2831341
C         31.4344692   -4.4777751    1.0489027
C         32.8498120   -3.9317481    0.8550318
C         32.8101908   -2.5671361    0.4605687
C         26.0008026    0.5487285   -0.2725095
C         24.7996533   -0.1547343   -0.0381706
C         24.8616097   -1.5181125    0.3561123
C         26.0757629   -2.1913364    0.5210024
C         34.0535704   -4.5899294    1.0153096
C         35.2547665   -3.8864873    0.7811942
C         35.1929072   -2.5228256    0.3878787
C         33.9787978   -1.8494336    0.2233761
C         28.9117788    1.6014959    0.6666464
C         28.8510264    0.8970282   -1.7628291
C         31.2037280   -4.9376917    2.5059949
C         31.1422589   -5.6427417    0.0767272
H         28.5690161   -3.9722383    0.9750499
H         31.4854874   -0.0683979   -0.2307401
H         34.0916795   -5.6343825    1.3169706
H         33.9523888   -0.8059116   -0.0780489
H         25.9626350    1.5929997   -0.5747621
H         26.1022506   -3.2345591    0.8234321
H         29.9490511    1.9413217    0.5646293
H         28.2566410    2.4550150    0.4565991
H         28.7527792    1.2964564    1.7058278
H         28.6488787    0.0856437   -2.4692201
H         28.1945708    1.7389767   -2.0117313
H         29.8871159    1.2253666   -1.9060200
H         30.1051812   -5.9828235    0.1796781
H         31.3003691   -5.3377882   -0.9626049
H         31.7978013   -6.4959960    0.2865313
H         30.1674298   -5.2651603    2.6498032
H         31.8596643   -5.7800955    2.7548339
H         31.4068584   -4.1263660    3.2122012
H         23.1787171    1.3251519   -0.4274378
H         36.8755989   -5.3668356    1.1691400
S         23.2479852   -2.1795089    0.5884895
C         23.4418272    0.3124835   -0.1399592
C         22.5241864   -0.6427471    0.1606238
H         38.6083401   -3.4929345    0.5823148

