%nproc=20
%chk=TIFBT-torsion-2.chk
#b3lyp/6-31g* SCF=tight Opt=ModRedundant

Torsion calculation on oligomer4

0,1
C
C  1  r2
C  1  r3  2  a3
N  2  r4  1  a4  3  d4
N  2  r5  1  a5  3  d5
S  5  r6  2  a6  1  d6
H  3  r7  1  a7  2  d7
H  3  r8  1  a8  2  d8
C  7  r9  3  a9  1  d9
C  5  r10  2  a10  1  d10
C  9  r11  7  a11  3  d11
H  11  r12  9  a12  7  d12
C  1  r13  2  a13  3  d13
C  13  r14  1  a14  2  d14
S  13  r15  1  a15  2  d15
C  14  r16  13  a16  1  d16
C  16  r17  14  a17  13  d17
C  17  r18  16  a18  14  d18
C  18  r19  17  a19  16  d19
C  19  r20  18  a20  17  d20
C  16  r21  14  a21  13  d21
C  19  r22  18  a22  17  d22
C  22  r23  19  a23  18  d23
C  23  r24  22  a24  19  d24
C  16  r25  14  a25  13  d25
C  25  r26  16  a26  14  d26
C  26  r27  25  a27  16  d27
C  23  r28  22  a28  19  d28
C  28  r29  23  a29  22  d29
C  29  r30  28  a30  23  d30
C  24  r31  23  a31  22  d31
C  26  r32  25  a32  16  d32
C  32  r33  26  a33  25  d33
C  33  r34  32  a34  26  d34
C  27  r35  26  a35  25  d35
C  22  r36  19  a36  18  d36
C  22  r37  19  a37  18  d37
C  25  r38  16  a38  14  d38
C  25  r39  16  a39  14  d39
H  21  r40  16  a40  14  d40
H  18  r41  17  a41  16  d41
H  32  r42  26  a42  25  d42
H  35  r43  27  a43  26  d43
H  28  r44  23  a44  22  d44
H  31  r45  24  a45  23  d45
H  36  r46  22  a46  19  d46
H  36  r47  22  a47  19  d47
H  36  r48  22  a48  19  d48
H  37  r49  22  a49  19  d49
H  37  r50  22  a50  19  d50
H  37  r51  22  a51  19  d51
H  39  r52  25  a52  16  d52
H  39  r53  25  a53  16  d53
H  39  r54  25  a54  16  d54
H  38  r55  25  a55  16  d55
H  38  r56  25  a56  16  d56
H  38  r57  25  a57  16  d57
H  29  r58  28  a58  23  d58
H  14  r59  13  a59  1  d59
S  30  r60  29  a60  28  d60
C  58  r61  29  a61  28  d61
C  61  r62  58  a62  29  d62
C  13  r63  1  a63  2  d63
C  63  r64  13  a64  1  d64
C  63  r65  13  a65  1  d65
N  64  r66  63  a66  13  d66
N  59  r67  14  a67  13  d67
S  66  r68  64  a68  63  d68
H  65  r69  63  a69  13  d69
H  65  r70  63  a70  13  d70
C  69  r71  65  a71  63  d71
C  67  r72  59  a72  14  d72
C  71  r73  69  a73  65  d73
C  63  r74  13  a74  1  d74
C  74  r75  63  a75  13  d75
S  74  r76  63  a76  13  d76
C  75  r77  74  a77  63  d77
C  77  r78  75  a78  74  d78
C  78  r79  77  a79  75  d79
C  79  r80  78  a80  77  d80
C  80  r81  79  a81  78  d81
C  77  r82  75  a82  74  d82
C  80  r83  79  a83  78  d83
C  83  r84  80  a84  79  d84
C  84  r85  83  a85  80  d85
C  77  r86  75  a86  74  d86
C  86  r87  77  a87  75  d87
C  87  r88  86  a88  77  d88
C  84  r89  83  a89  80  d89
C  89  r90  84  a90  83  d90
C  90  r91  89  a91  84  d91
C  85  r92  84  a92  83  d92
C  87  r93  86  a93  77  d93
C  93  r94  87  a94  86  d94
C  94  r95  93  a95  87  d95
C  88  r96  87  a96  86  d96
C  83  r97  80  a97  79  d97
C  83  r98  80  a98  79  d98
C  86  r99  77  a99  75  d99
C  86  r100  77  a100  75  d100
H  82  r101  77  a101  75  d101
H  79  r102  78  a102  77  d102
H  93  r103  87  a103  86  d103
H  96  r104  88  a104  87  d104
H  89  r105  84  a105  83  d105
H  92  r106  85  a106  84  d106
H  97  r107  83  a107  80  d107
H  97  r108  83  a108  80  d108
H  97  r109  83  a109  80  d109
H  98  r110  83  a110  80  d110
H  98  r111  83  a111  80  d111
H  98  r112  83  a112  80  d112
H  100  r113  86  a113  77  d113
H  100  r114  86  a114  77  d114
H  100  r115  86  a115  77  d115
H  99  r116  86  a116  77  d116
H  99  r117  86  a117  77  d117
H  99  r118  86  a118  77  d118
H  90  r119  89  a119  84  d119
H  75  r120  74  a120  63  d120
S  91  r121  90  a121  89  d121
C  119  r122  90  a122  89  d122
C  122  r123  119  a123  90  d123
H  74  r124  4  a124  1  d124
Variables:
r2= 1.4413
r3= 1.3860
a3= 116.08
r4= 1.3484
a4= 126.96
d4= 180.00
r5= 2.3500
a5= 152.09
d5=   0.00
r6= 1.6499
a6=  72.34
d6= 180.00
r7= 2.1583
a7= 149.54
d7= 360.00
r8= 1.0837
a8= 119.02
d8= 180.00
r9= 1.0834
a9=  35.54
d9=   0.00
r10= 1.3521
a10=  34.71
d10=   0.00
r11= 1.3704
a11= 119.92
d11= 180.00
r12= 1.0808
a12= 122.60
d12= 360.00
r13= 16.7620
a13= 126.63
d13= 179.99
r14= 1.3739
a14=  56.40
d14= 180.01
r15= 1.7787
a15=  54.93
d15=   0.02
r16= 6.1239
a16= 123.18
d16= 359.99
r17= 1.4166
a17=  64.87
d17= 360.00
r18= 1.4011
a18= 121.08
d18= 179.99
r19= 1.3885
a19= 118.11
d19= 360.00
r20= 1.4166
a20= 120.81
d20=   0.00
r21= 1.3884
a21= 174.32
d21= 179.93
r22= 1.5343
a22= 128.36
d22= 180.00
r23= 1.5346
a23= 101.46
d23= 180.00
r24= 1.4256
a24= 110.48
d24= 360.00
r25= 1.5343
a25=  45.96
d25= 180.01
r26= 1.5346
a26= 101.46
d26=   0.00
r27= 1.4257
a27= 110.47
d27=   0.00
r28= 1.3790
a28= 128.57
d28= 180.00
r29= 1.4133
a29= 118.84
d29= 180.00
r30= 1.4251
a30= 119.45
d30=   0.00
r31= 1.3921
a31= 121.30
d31= 180.00
r32= 1.3788
a32= 128.56
d32= 180.01
r33= 1.4136
a33= 118.85
d33= 180.00
r34= 1.4254
a34= 119.42
d34=   0.00
r35= 1.3922
a35= 121.29
d35= 180.00
r36= 1.5489
a36= 110.94
d36= 297.96
r37= 1.5489
a37= 110.94
d37=  62.04
r38= 1.5490
a38= 110.94
d38= 117.96
r39= 1.5489
a39= 110.94
d39= 242.04
r40= 1.0848
a40= 121.08
d40=   0.06
r41= 1.0848
a41= 120.81
d41= 180.00
r42= 1.0846
a42= 121.51
d42=   0.00
r43= 1.0837
a43= 121.28
d43= 180.00
r44= 1.0846
a44= 121.51
d44= 360.00
r45= 1.0837
a45= 121.28
d45= 180.00
r46= 1.0959
a46= 110.22
d46=  64.10
r47= 1.0959
a47= 110.19
d47= 183.75
r48= 1.0936
a48= 110.23
d48= 303.91
r49= 1.0936
a49= 110.23
d49=  56.09
r50= 1.0959
a50= 110.19
d50= 176.25
r51= 1.0959
a51= 110.22
d51= 295.90
r52= 1.0959
a52= 110.22
d52= 295.91
r53= 1.0936
a53= 110.23
d53=  56.09
r54= 1.0959
a54= 110.20
d54= 176.25
r55= 1.0959
a55= 110.22
d55=  64.09
r56= 1.0959
a56= 110.20
d56= 183.75
r57= 1.0936
a57= 110.23
d57= 303.91
r58= 2.2295
a58= 104.95
d58= 180.00
r59= 1.0789
a59= 121.63
d59= 179.99
r60= 1.7506
a60= 111.13
d60= 180.00
r61= 1.0792
a61=  32.01
d61= 180.00
r62= 1.3723
a62= 121.60
d62= 180.00
r63= 4.3996
a63= 174.20
d63= 359.87
r64= 1.4384
a64=  59.38
d64= 180.15
r65= 1.3877
a65=  55.96
d65=   0.16
r66= 1.3472
a66= 126.15
d66= 180.00
r67= 2.2518
a67= 119.55
d67= 359.99
r68= 1.6506
a68= 107.83
d68= 180.00
r69= 2.1384
a69= 150.33
d69=   0.00
r70= 1.0837
a70= 119.02
d70= 180.01
r71= 1.0837
a71=  35.87
d71=   0.00
r72= 1.3472
a72= 101.77
d72=   0.01
r73= 1.3876
a73= 119.02
d73= 180.00
r74= 16.7385
a74= 173.35
d74= 359.99
r75= 1.3599
a75=  57.64
d75=   0.19
r76= 1.7503
a76=  55.52
d76= 180.18
r77= 6.1369
a77= 121.93
d77=   0.01
r78= 1.4163
a78=  64.84
d78= 360.00
r79= 1.4006
a79= 121.07
d79= 180.00
r80= 1.3888
a80= 118.12
d80=   0.00
r81= 1.4163
a81= 120.81
d81=   0.00
r82= 1.3885
a82= 174.33
d82= 180.02
r83= 1.5344
a83= 128.36
d83= 180.00
r84= 1.5346
a84= 101.46
d84= 180.00
r85= 1.4258
a85= 110.47
d85= 360.00
r86= 1.5345
a86=  45.98
d86= 180.00
r87= 1.5347
a87= 101.47
d87= 360.00
r88= 1.4248
a88= 110.50
d88= 360.00
r89= 1.3788
a89= 128.57
d89= 179.99
r90= 1.4137
a90= 118.85
d90= 180.01
r91= 1.4254
a91= 119.42
d91=   0.00
r92= 1.3922
a92= 121.29
d92= 180.00
r93= 1.3798
a93= 128.52
d93= 180.00
r94= 1.4118
a94= 118.84
d94= 180.00
r95= 1.4246
a95= 119.48
d95=   0.00
r96= 1.3906
a96= 121.25
d96= 180.00
r97= 1.5489
a97= 110.95
d97=  62.05
r98= 1.5489
a98= 110.95
d98= 297.96
r99= 1.5489
a99= 110.94
d99= 242.04
r100= 1.5489
a100= 110.95
d100= 117.96
r101= 1.0848
a101= 121.09
d101= 359.98
r102= 1.0848
a102= 120.80
d102= 180.00
r103= 1.0848
a103= 121.38
d103= 360.00
r104= 1.0838
a104= 121.30
d104= 180.00
r105= 1.0846
a105= 121.50
d105=   0.00
r106= 1.0837
a106= 121.28
d106= 180.00
r107= 1.0959
a107= 110.22
d107= 295.88
r108= 1.0959
a108= 110.20
d108= 176.22
r109= 1.0936
a109= 110.23
d109=  56.06
r110= 1.0936
a110= 110.23
d110= 303.93
r111= 1.0959
a111= 110.20
d111= 183.77
r112= 1.0959
a112= 110.22
d112=  64.12
r113= 1.0959
a113= 110.24
d113=  64.12
r114= 1.0936
a114= 110.22
d114= 303.93
r115= 1.0959
a115= 110.20
d115= 183.77
r116= 1.0960
a116= 110.24
d116= 295.88
r117= 1.0959
a117= 110.19
d117= 176.23
r118= 1.0936
a118= 110.22
d118=  56.07
r119= 2.2276
a119= 104.92
d119= 180.00
r120= 1.0814
a120= 123.66
d120= 180.01
r121= 1.7505
a121= 111.12
d121= 180.00
r122= 1.0789
a122=  32.04
d122= 180.01
r123= 1.3739
a123= 121.63
d123= 180.00
r124= 1.0792
a124= 174.81
d124= 179.71

14 13 73 72 S 36 10.0

