71
/users/hmakki/sharedscratch/GAMMPS/Polymers/DPPBTZ/DPPBTZ-charge.log	Energy: -1940927.4812860
C         -8.55574        0.52942        0.00006
C         -9.54540       -0.50572        0.00008
C         -9.06776        1.82551        0.00013
N        -11.63030       -1.36680        0.00014
N        -10.66795       -2.27918        0.00006
N         -9.41085       -1.85122        0.00001
C        -10.97246       -3.70127        0.00014
H         -8.37833        2.66513        0.00012
H        -10.76003        3.16091        0.00025
H        -12.05656       -3.80309       -0.00040
H        -10.54509       -4.16570        0.89210
H        -10.54414       -4.16596       -0.89121
C        -10.45580        2.11821        0.00020
C        -10.93970       -0.20296        0.00015
C        -11.41375        1.12678        0.00021
H        -12.47648        1.34361        0.00026
C         -4.59925        0.38211       -0.00011
C         -5.09112       -0.91892       -0.00017
S         -5.93886        1.52685        0.00001
H         -7.05034       -1.92336       -0.00014
H         -4.43021       -1.78022       -0.00024
C         -6.49599       -0.99417       -0.00011
C         -7.12861        0.23874       -0.00001
C          0.17705       -0.27726       -0.00012
C         -0.91175        0.60084       -0.00016
N         -0.35140       -1.56772       -0.00011
C         -1.78572       -1.55234       -0.00013
C         -1.24456        2.00727       -0.00012
O         -0.57228        3.03664       -0.00011
O         -2.45826       -2.58132       -0.00015
C         -3.37895        3.29434       -0.00010
C          0.34851       -2.83959       -0.00012
H         -0.42576       -3.60938       -0.00013
H          0.96996       -2.95660        0.89344
H          0.96997       -2.95658       -0.89368
H         -4.00044        3.41136        0.89344
H         -4.00049        3.41132       -0.89362
H         -2.60460        4.06405       -0.00014
N         -2.67909        2.02250       -0.00010
C         -2.11859       -0.14562       -0.00017
C         -3.20718        0.73207       -0.00013
C          4.09879        0.21680       -0.00003
C          3.46379        1.45038       -0.00008
S          2.90833       -1.07221       -0.00003
H          1.39878        2.23489       -0.00015
H          4.01696        2.38006       -0.00009
C          2.06033        1.37404       -0.00012
C          1.56823        0.07220       -0.00009
C          8.41288       -0.69341        0.00009
C          7.91760        0.64829        0.00002
C          7.41413       -1.66551        0.00015
N          6.38157        2.29150       -0.00013
N          7.63434        2.72799       -0.00017
N          8.59636        1.81778       -0.00007
C          7.94213        4.14928        0.00007
H          7.69725       -2.71417        0.00023
H          5.35007       -2.21381        0.00016
H          6.99651        4.68912       -0.00177
H          8.52102        4.39720        0.89304
H          8.52428        4.39666       -0.89089
C          6.03605       -1.37153        0.00011
C          6.52159        0.94758       -0.00002
C          5.52088       -0.07559        0.00002
C         12.05757       -2.17430        0.00014
C         12.17251       -0.81089        0.00018
S         10.40002       -2.67724        0.00015
H         10.79299        0.92736        0.00017
H         13.12517       -0.29229        0.00020
C         10.91428       -0.14780        0.00017
C          9.83405       -1.00856        0.00013
H         12.84491       -2.91618        0.00013
