%nproc=10
%mem=9GB
%chk=DPPBTZ14.chk
#p opt b3lyp/3-21g*

Gaussian optimization calculation on oligomer14

0,1
C          0.0000000    0.0000000    0.0000000
C         -0.8372363   -1.1371442   -0.0677267
C         -0.6188775    1.2286769    0.0821762
N         -2.8000568   -2.2444860   -0.1269604
N         -1.7275256   -3.0282855   -0.1831514
N         -0.5309828   -2.4531173   -0.1536857
C         -1.8575036   -4.4733907   -0.2743415
H         -0.0137094    2.1294224    0.1361253
H         -2.4702289    2.3547458    0.1650554
H         -2.9210746   -4.7065337   -0.2833115
H         -1.3712955   -4.9390603    0.5864152
H         -1.3810432   -4.8257766   -1.1924549
C         -2.0402049    1.3591439    0.0989154
C         -2.2576492   -1.0065603   -0.0509755
C         -2.8733454    0.2624137    0.0337543
H         -3.9542205    0.3595098    0.0463286
C          3.8910055    0.0617102   -0.3099255
C          3.4448023   -1.1941830   -0.0043351
S          2.5781674    1.1223898   -0.7146006
H          1.4776022   -2.2282922    0.1085028
H          4.1033542   -2.0093493    0.2762719
C          2.0227868   -1.3127548   -0.0951930
C          1.4177942   -0.1445134   -0.4679482
C          8.6880200   -0.1480661   -0.0500554
C          7.5451594    0.6205693   -0.2893171
N          8.3852757   -1.4401913    0.2945146
C          6.9768436   -1.5739873    0.2940659
C          7.0255893    1.9707000   -0.6706724
O          7.5366707    3.0204726   -0.9439145
O          6.4772137   -2.6296331    0.5691684
C          4.6813041    2.9587895   -1.0018862
C          9.3060953   -2.5702676    0.6269394
H          8.9698332   -3.3667004   -0.0573303
H          9.3447757   -2.9744369    1.6302016
H         10.3154742   -2.2440040    0.5651544
H          4.2428460    3.1684706   -0.1719855
H          3.8649813    2.7733420   -1.8720395
H          5.2641173    3.8244266   -1.2219860
N          5.6128053    1.8382186   -0.6717040
C          6.4530602   -0.2234866   -0.0877319
C          5.3108320    0.5452430   -0.3269223
C         12.5735227    0.6418456    0.0545132
C         11.9170038    1.7784528    0.3592120
S         11.4726506   -0.6822947   -0.3567115
H          9.8091432    2.3695118    0.4644017
H         12.4197748    2.7205683    0.6433381
C         10.5031771    1.5883329    0.2623063
C         10.1145534    0.3111833   -0.1140281
C         16.9498267    0.3595098    0.0463286
C         16.1429844   -0.7568110   -0.2722335
C         16.2988669    1.5350875    0.3523967
N         14.2103340   -1.8669113   -0.6112297
N         15.3029877   -2.6032721   -0.7892831
N         16.4837784   -2.0230643   -0.6090230
C         15.2111597   -4.0032340   -1.1703519
H         16.8799896    2.4181814    0.6032414
H         14.4187521    2.5867030    0.6007414
H         14.1542734   -4.2499514   -1.2583364
H         15.6857933   -4.6221751   -0.4049871
H         15.7202650   -4.1560571   -2.1251186
C         14.8748074    1.6326873    0.3509697
C         14.7198356   -0.6590818   -0.2735972
C         14.0709933    0.5555236    0.0430939
C         20.8425850   -0.3629331    0.2343108
C         20.6734529    0.9399033    0.5338871
S         19.3188863   -1.1609046   -0.1851609
H         18.9563066    2.2989352    0.6229546
H         21.4988572    1.6158722    0.8217440
C         19.2964963    1.3098264    0.4262297
C         18.4477415    0.2804480    0.0470699
H         21.7672660   -0.9019687    0.2343108

