71
oligomer-16.log	Energy: -1930863.5343720
C         -8.52963        0.55694       -0.00006
C         -9.50067       -0.49190       -0.00002
C         -9.04071        1.85154       -0.00004
N        -11.61282       -1.36481        0.00009
N        -10.62007       -2.31091        0.00001
N         -9.33053       -1.84255       -0.00008
C        -10.91385       -3.74544        0.00012
H         -8.35216        2.68885       -0.00009
H        -10.74634        3.16999        0.00006
H        -11.99783       -3.84329       -0.00035
H        -10.48474       -4.20248        0.89391
H        -10.48392       -4.20274       -0.89314
C        -10.43143        2.13352        0.00004
C        -10.90547       -0.19796        0.00004
C        -11.37585        1.13130        0.00007
H        -12.43681        1.33975        0.00015
C         -4.58464        0.40096       -0.00021
C         -5.07540       -0.90322       -0.00035
S         -5.91026        1.55420       -0.00013
H         -7.05603       -1.88322       -0.00035
H         -4.41256       -1.76129       -0.00042
C         -6.48255       -0.96925       -0.00029
C         -7.10309        0.27268       -0.00015
C          0.17456       -0.30173        0.00012
C         -0.90158        0.58972       -0.00012
N         -0.36752       -1.58629        0.00019
C         -1.82004       -1.54917        0.00002
C         -1.20345        1.99574        0.00001
O         -0.51662        3.03591        0.00021
O         -2.50698       -2.58904        0.00004
C         -3.33575        3.33119       -0.00014
C          0.31211       -2.88473        0.00042
H         -0.49148       -3.62622        0.00045
H          0.92731       -3.01312        0.89608
H          0.92748       -3.01336       -0.89507
H         -3.95111        3.45973        0.89539
H         -3.95106        3.45959       -0.89572
H         -2.53208        4.07259       -0.00017
N         -2.65617        2.03278       -0.00003
C         -2.12202       -0.14289       -0.00020
C         -3.19795        0.74826       -0.00015
C          4.08010        0.17538        0.00016
C          3.45678        1.41785        0.00019
S          2.88662       -1.10719        0.00019
H          1.38743        2.20793        0.00022
H          4.02809        2.33283        0.00013
C          2.05111        1.35044        0.00023
C          1.56034        0.04540        0.00023
C          8.37882       -0.70434       -0.00005
C          7.88877        0.63604       -0.00002
C          7.39487       -1.68996        0.00000
N          6.30981        2.27678        0.00000
N          7.59588        2.75192       -0.00006
N          8.58395        1.80688       -0.00006
C          7.89482        4.18550        0.00014
H          7.69484       -2.73147       -0.00000
H          5.32843       -2.24370        0.00011
H          6.93887        4.70582       -0.00143
H          8.46835        4.43529        0.89485
H          8.47107        4.43482       -0.89294
C          6.01552       -1.40531        0.00007
C          6.48298        0.92746        0.00005
C          5.50153       -0.11003        0.00009
C         12.04123       -2.12769       -0.00027
C         12.13430       -0.75962       -0.00009
S         10.39461       -2.66200       -0.00020
H         10.70480        0.94925        0.00008
H         13.07425       -0.22631       -0.00006
C         10.86116       -0.11826        0.00000
C          9.80069       -1.00600       -0.00011
H         12.84681       -2.84511       -0.00037
