%nproc=10
%mem=9GB
%chk=DPPBTZ4.chk
#p opt b3lyp/3-21g*

Gaussian optimization calculation on oligomer4

0,1
C          0.0000000    0.0000000    0.0000000
C         -1.2110262   -0.7271913   -0.0570674
C         -0.0973434    1.3727306    0.0744600
N         -3.4492200   -0.9931841   -0.1030581
N         -2.7617253   -2.1300081   -0.1560177
N         -1.4358226   -2.0600578   -0.1338723
C         -3.4388511   -3.4140032   -0.2359920
H          0.8083884    1.9711011    0.1201105
H         -1.3715425    3.1256071    0.1534714
H         -4.5101797   -3.2194433   -0.2405513
H         -3.1650889   -4.0258778    0.6270330
H         -3.1397029   -3.9282444   -1.1526102
C         -1.3586012    2.0408096    0.0937621
C         -2.4713950   -0.0593567   -0.0377564
C         -2.5502655    1.3493492    0.0389456
H         -3.5102302    1.8554452    0.0534848
C          3.6127923   -1.4439738   -0.3200895
C          2.7188095   -2.4291591   -0.0039325
S          2.8078068    0.0381715   -0.7294681
H          0.5056818   -2.6248555    0.1216022
H          3.0139524   -3.4334187    0.2811646
C          1.3604179   -1.9912695   -0.0903459
C          1.2502374   -0.6823833   -0.4703822
C          8.2190151   -0.0622472   -0.0383975
C          7.3261085   -1.0634787   -0.3022017
N          7.5357582    1.0715519    0.3409203
C          6.1125916    0.8488637    0.3400349
C          7.2189660   -2.4546979   -0.7223084
O          8.0344999   -3.3103302   -1.0230066
O          5.3065595    1.7128232    0.6427887
C          5.2118302   -3.9578237   -1.0876420
C          8.1025580    2.3559626    0.7072084
H          7.7378177    3.1397192    0.0359271
H          7.8166172    2.6217770    1.7297145
H          9.1911365    2.2999764    0.6393896
H          4.6391348   -4.3849035   -0.2567652
H          4.5596231   -3.8631976   -1.9631226
H          6.0425793   -4.6236531   -1.3299003
N          5.7919432   -2.6796755   -0.7238267
C          6.0014744   -0.5437106   -0.0805388
C          5.1091987   -1.5448850   -0.3442717
C         12.1554259    0.3753757    0.0607480
C         11.8396612   -0.9206322    0.3614250
S         10.7419975    1.2964318   -0.3469566
H          9.9889287   -2.1520447    0.4634201
H         12.5775052   -1.6644744    0.6428715
C         10.4377787   -1.1846833    0.2642404
C          9.7172304   -0.0838697   -0.1082783
C         16.2835835    1.8554452    0.0534848
C         15.2023883    2.7090802   -0.2651907
C         15.9784453    0.5470357    0.3597578
N         13.0397758    3.2495443   -0.6042353
N         13.8898412    4.2559913   -0.7824561
N         15.1843522    4.0200790   -0.6021805
C         13.4190636    5.5775595   -1.1637196
H         16.7787689   -0.1438481    0.6106955
H         14.4568995   -0.9775212    0.6083599
H         12.3348583    5.5264955   -1.2516790
H         13.7077261    6.3029601   -0.3984697
H         13.8660108    5.8629423   -2.1185376
C         14.6350491    0.0645862    0.3584259
C         13.8599036    2.2267547   -0.2664594
C         13.5674639    0.8813821    0.0504422
C         20.1475825    2.7629568    0.2413715
C         19.4436943    3.8722493    0.5409478
S         19.1038799    1.3958062   -0.1781003
H         17.3130796    4.3782531    0.6300152
H         19.9060879    4.8337161    0.8288046
C         18.0394117    3.6255865    0.4332904
C         17.7052126    2.3339535    0.0541306
H         21.2134344    2.6652118    0.2413715

